/*--------------------------------*- C++ -*----------------------------------*\
| =========                 |                                                 |
| \\      /  F ield         | OpenFOAM: The Open Source CFD Toolbox           |
|  \\    /   O peration     | Version:  v2206                                 |
|   \\  /    A nd           | Website:  www.openfoam.com                      |
|    \\/     M anipulation  |                                                 |
\*---------------------------------------------------------------------------*/
FoamFile
{
    version     2.0;
    format      ascii;
    class       volVectorField;
    object      U;
}
// * * * * * * * * * * * * * * * * * * * * * * * * * * * * * * * * * * * * * //

dimensions      [0 1 -1 0 0 0 0];

internalField   uniform (0 0 0);

boundaryField
{
    
    inlet
    {
        type            variableHeightFlowRateInletVelocity;
        flowRate        3;
        /*flowRateCoeffs
        {
            values          
            3
            (
            (0 0)
            (1 8.7)
            (30 8.7)
            );
        }*/
        alpha           alpha.water;
        value           uniform (0 0 0);
    }
    
    /*ORIGINAL
    inlet
    {
        type   flowRateInletVelocity;
        volumetricFlowRate constant 8.7;//input flow here
    }
    */
   
    walls
    {
        type   noSlip;
    }
    
    outlet
    {
    /*    type            variableHeightFlowRateInletVelocity;
        flowRate        table;
        flowRateCoeffs
        {
            values          
            4
            (
            (0 0)
            (13 0)
            (15 -8.7)
            (100 -8.7)
            );
        }
        alpha           alpha.water;
        value           uniform (0 0 0);
    */    
        //ORIGINAL
        type            zeroGradient;
        //type   flowRateOutletVelocity;
        //volumetricFlowRate constant 8.7;
    }

    top
    {
        type   pressureInletOutletVelocity;
        value  uniform (0 0 0);
    }

    
}


// ************************************************************************* //
