/*--------------------------------*- C++ -*----------------------------------*\
| =========                 |                                                 |
| \\      /  F ield         | OpenFOAM: The Open Source CFD Toolbox           |
|  \\    /   O peration     | Version:  v2206                                 |
|   \\  /    A nd           | Website:  www.openfoam.com                      |
|    \\/     M anipulation  |                                                 |
\*---------------------------------------------------------------------------*/
FoamFile
{
    version     2.0;
    format      ascii;
    class       dictionary;
    object      blockMeshDict;
}
// * * * * * * * * * * * * * * * * * * * * * * * * * * * * * * * * * * * * * //

// Basin
x0 -10.01;
x1 20.01;
y0 -10.01;
y1 10.01;
z0 -0.01;
z1 10.01;

xCell 45;
yCell 30;
zCell 15;

vertices
(
    // Basin
    ($x0 $y0 $z0)
    ($x1 $y0 $z0)
    ($x1 $y1 $z0)
    ($x0 $y1 $z0)
    ($x0 $y0 $z1)
    ($x1 $y0 $z1)
    ($x1 $y1 $z1)
    ($x0 $y1 $z1)

);

blocks
(
    hex (0 1 2 3 4 5 6 7)  ($xCell $yCell $zCell) simpleGrading (1 1 1)
);

boundary
(
    allBoundary//Don't worry about these settings
    {
        type patch;
        faces
        (
            (3 7 6 2)
            (0 4 7 3)
            (2 6 5 1)
            (1 5 4 0)
            (0 3 2 1)
            (4 5 6 7)
        );
    }
);

edges
(
);



// ************************************************************************* //
