/*--------------------------------*- C++ -*----------------------------------*\
| =========                 |                                                 |
| \\      /  F ield         | OpenFOAM: The Open Source CFD Toolbox           |
|  \\    /   O peration     | Version:  v2206                                 |
|   \\  /    A nd           | Website:  www.openfoam.com                      |
|    \\/     M anipulation  |                                                 |
\*---------------------------------------------------------------------------*/
FoamFile
{
    version         2;
    format          ascii;
    class           dictionary;
    location        "system";
    object          controlDict;
}
// * * * * * * * * * * * * * * * * * * * * * * * * * * * * * * * * * * * * * //

application     interIsoFoam;

startFrom       latestTime; //startTime;

startTime       0;

stopAt          endTime; //writeNow; //endTime;

endTime         100;

deltaT          0.005;

writeControl    adjustableRunTime;

writeInterval   0.5;

purgeWrite      0;

writeFormat     binary;

writePrecision  6;

writeCompression off;

timeFormat      general;

timePrecision   6;

runTimeModifiable yes;

adjustTimeStep  yes; //yes

maxCo           1;

maxAlphaCo      1;

maxDeltaT       1;


/*
functions
{
    inlet1Flux
    {
        type            surfaceFieldValue;
        libs            (fieldFunctionObjects);
        writeControl    timeStep;
        log             true;
        writeFields     false;
        regionType      patch;
        name            inlet;
        operation       sum;
        fields          ( rhoPhi );
    }
    inlet2Flux
    {
        type            surfaceFieldValue;
        libs            (fieldFunctionObjects);
        writeControl    timeStep;
        log             true;
        writeFields     false;
        regionType      patch;
        name            inlet;
        operation       sum;
        fields          ( rhoPhi );
    }
    outletFlux
    {
        type            surfaceFieldValue;
        libs            (fieldFunctionObjects);
        writeControl    timeStep;
        log             true;
        writeFields     false;
        regionType      patch;
        name            outlet;
        operation       sum;
        fields          ( rhoPhi );
    }

    atmosphereFlux
    {
        type            surfaceFieldValue;
        libs            (fieldFunctionObjects);
        writeControl    timeStep;
        log             true;
        writeFields     false;
        regionType      patch;
        name            atmosphere;
        operation       sum;
        fields          ( rhoPhi );
    }
} 
*/


// ************************************************************************* //
